<?xml version="1.0" encoding="UTF-8"?>

<!-- generated on 2026-03-28 14:01:03 by Eclipse SUMO netedit Version 1.24.0
-->

<additional xmlns:xsi="http://www.w3.org/2001/XMLSchema-instance" xsi:noNamespaceSchemaLocation="http://sumo.dlr.de/xsd/additional_file.xsd">
    <!-- Detectors -->
    <laneAreaDetector id="e2_0" lane="693449409#0_0" pos="20.00" length="50.00" period="1" file="e2_0.xml"/>
    <laneAreaDetector id="e2_1" lane="693449409#0_1" pos="20.00" length="50.00" period="1" file="e2_1.xml"/>
    <laneAreaDetector id="e2_2" lane="693449409#0_2" pos="20.00" length="50.00" period="1" file="e2_2.xml"/>
    <laneAreaDetector id="e2_3" lane="E0_1" pos="140.00" length="50.00" period="60.00" file="e2_3.xml"/>
    <laneAreaDetector id="e2_4" lane="E0_0" pos="140.00" length="50.00" period="60.00" file="e2_4.xml"/>
    <laneAreaDetector id="e2_5" lane="452179357#1_0" pos="10.00" length="50.00" period="1" file="e2_5.xml" friendlyPos="1"/>
    <laneAreaDetector id="e2_6" lane="452179357#1_1" pos="10.00" length="50.00" period="1" file="e2_6.xml" friendlyPos="1"/>
    <laneAreaDetector id="e2_7" lane="452179357#1_2" pos="10.00" length="50.00" period="1" file="e2_7.xml" friendlyPos="1"/>
</additional>
