<?xml version="1.0" encoding="UTF-8"?>

<!-- generated on 2026-03-28 14:04:24 by Eclipse SUMO sumo Version 1.24.0
-->

<sumoConfiguration xmlns:xsi="http://www.w3.org/2001/XMLSchema-instance" xsi:noNamespaceSchemaLocation="http://sumo.dlr.de/xsd/sumoConfiguration.xsd">

    <input>
        <net-file value="osm.net.xml.gz"/>
        <route-files value="route.rou.xml"/>
        <additional-files value="detectors.add.xml"/>
    </input>

</sumoConfiguration>
